/*--------------------------------*- C++ -*----------------------------------*\
| =========                 |                                                 |
| \\      /  F ield         | OpenFOAM: The Open Source CFD Toolbox           |
|  \\    /   O peration     | Version:  4.0                                   |
|   \\  /    A nd           | Web:      www.OpenFOAM.org                      |
|    \\/     M anipulation  |                                                 |
\*---------------------------------------------------------------------------*/
FoamFile
{
    version     2.0;
    format      ascii;
    class       dictionary;
    object      blockMeshDict;
}
// * * * * * * * * * * * * * * * * * * * * * * * * * * * * * * * * * * * * * //



convertToMeters 1;


vertices
(
    (-16.8363 -11.410236464088397 -9.270817127071822)
    (14.913923204419888 -11.410236464088397 -9.270817127071822)
    (14.913923204419888 11.410236464088397 -9.270817127071822)
    (-16.8363 11.410236464088397 -9.270817127071822)
    (-16.8363 -11.410236464088397 5.6121)
    (14.913923204419888 -11.410236464088397 5.6121)
    (14.913923204419888 11.410236464088397 5.6121)
    (-16.8363 11.410236464088397 5.6121)
);

blocks
(
    hex (0 1 2 3 4 5 6 7) (32 23 15) simpleGrading (1 1 1)
);

edges
(
);

boundary
(
    top
    {
        type patch;
        faces
        (
             (4 5 6 7)
        );
    }
    inlet
    {
        type patch;
        faces
        (
            (1 2 6 5)
        );
    }
    outlet
    {
        type patch;
        faces
        (
            (0 4 7 3)
        );
    }
    bottom
    {
        type symmetryPlane;
        faces
        (
            (0 3 2 1)
        );
    }
    side1
    {
        type symmetryPlane;
        faces
        (
            (0 1 5 4)
        );
    }
    side2
    {
        type symmetryPlane;
        faces
        (
            (3 7 6 2)
        );
    }
);

mergePatchPairs
(
);

// ************************************************************************* //
